<?xml version="1.0" encoding="UTF-8"?>

<!-- generated on 2023-05-21 13:57:59 by Eclipse SUMO sumo Version 1.16.0
-->

<configuration xmlns:xsi="http://www.w3.org/2001/XMLSchema-instance" xsi:noNamespaceSchemaLocation="http://sumo.dlr.de/xsd/sumoConfiguration.xsd">

    <input>
        <net-file value="../../My%20task/4_way_final/4_way.net.xml"/>
        <route-files value="../../My%20task/4_way_final/4_way.rou.xml" />
    </input>

</configuration>
