<?xml version="1.0" encoding="UTF-8"?>

<!-- generated on 2023-05-22 17:01:24 by Eclipse SUMO netedit Version 1.16.0
<configuration xmlns:xsi="http://www.w3.org/2001/XMLSchema-instance" xsi:noNamespaceSchemaLocation="http://sumo.dlr.de/xsd/netconvertConfiguration.xsd">

    <input>
        <sumo-net-file value="D:\FYP\My task\4_way_final\4_way.net.xml"/>
    </input>

    <output>
        <output-file value="D:\FYP\My task\4_way_final\4_way.net.xml"/>
    </output>

    <processing>
        <geometry.min-radius.fix.railways value="false"/>
        <geometry.max-grade.fix value="false"/>
        <offset.disable-normalization value="true"/>
        <lefthand value="1"/>
    </processing>

    <junctions>
        <no-turnarounds value="true"/>
        <junctions.corner-detail value="5"/>
        <junctions.limit-turn-speed value="5.50"/>
        <rectangular-lane-cut value="0"/>
    </junctions>

    <pedestrian>
        <walkingareas value="0"/>
    </pedestrian>

</configuration>
-->

<net version="1.16" junctionCornerDetail="5" lefthand="true" limitTurnSpeed="5.50" xmlns:xsi="http://www.w3.org/2001/XMLSchema-instance" xsi:noNamespaceSchemaLocation="http://sumo.dlr.de/xsd/net_file.xsd">

    <location netOffset="0.00,0.00" convBoundary="-300.00,-200.00,300.00,400.00" origBoundary="-10000000000.00,-10000000000.00,10000000000.00,10000000000.00" projParameter="!"/>

    <edge id=":J1_0" function="internal">
        <lane id=":J1_0_0" index="0" speed="6.51" length="9.03" shape="-8.00,86.40 -8.35,88.85 -9.40,90.60 -11.15,91.65 -13.60,92.00"/>
    </edge>
    <edge id=":J1_1" function="internal">
        <lane id=":J1_1_0" index="0" speed="13.89" length="27.20" shape="-4.80,86.40 -4.80,113.60"/>
    </edge>
    <edge id=":J1_2" function="internal">
        <lane id=":J1_2_0" index="0" speed="10.36" length="12.07" shape="-1.60,86.40 -0.65,93.05 2.10,97.64"/>
    </edge>
    <edge id=":J1_12" function="internal">
        <lane id=":J1_12_0" index="0" speed="10.36" length="12.44" shape="2.10,97.64 2.20,97.80 6.95,100.65 13.60,101.60"/>
    </edge>
    <edge id=":J1_3" function="internal">
        <lane id=":J1_3_0" index="0" speed="6.51" length="9.03" shape="13.60,92.00 11.15,91.65 9.40,90.60 8.35,88.85 8.00,86.40"/>
    </edge>
    <edge id=":J1_4" function="internal">
        <lane id=":J1_4_0" index="0" speed="13.89" length="27.20" shape="13.60,95.20 -13.60,95.20"/>
    </edge>
    <edge id=":J1_5" function="internal">
        <lane id=":J1_5_0" index="0" speed="10.36" length="12.07" shape="13.60,98.40 6.95,99.35 2.36,102.10"/>
    </edge>
    <edge id=":J1_13" function="internal">
        <lane id=":J1_13_0" index="0" speed="10.36" length="12.44" shape="2.36,102.10 2.20,102.20 -0.65,106.95 -1.60,113.60"/>
    </edge>
    <edge id=":J1_6" function="internal">
        <lane id=":J1_6_0" index="0" speed="6.51" length="9.03" shape="8.00,113.60 8.35,111.15 9.40,109.40 11.15,108.35 13.60,108.00"/>
    </edge>
    <edge id=":J1_7" function="internal">
        <lane id=":J1_7_0" index="0" speed="13.89" length="27.20" shape="4.80,113.60 4.80,86.40"/>
    </edge>
    <edge id=":J1_8" function="internal">
        <lane id=":J1_8_0" index="0" speed="10.36" length="12.07" shape="1.60,113.60 0.65,106.95 -2.10,102.36"/>
    </edge>
    <edge id=":J1_14" function="internal">
        <lane id=":J1_14_0" index="0" speed="10.36" length="12.44" shape="-2.10,102.36 -2.20,102.20 -6.95,99.35 -13.60,98.40"/>
    </edge>
    <edge id=":J1_9" function="internal">
        <lane id=":J1_9_0" index="0" speed="6.51" length="9.03" shape="-13.60,108.00 -11.15,108.35 -9.40,109.40 -8.35,111.15 -8.00,113.60"/>
    </edge>
    <edge id=":J1_10" function="internal">
        <lane id=":J1_10_0" index="0" speed="13.89" length="27.20" shape="-13.60,104.80 13.60,104.80"/>
    </edge>
    <edge id=":J1_11" function="internal">
        <lane id=":J1_11_0" index="0" speed="10.36" length="12.07" shape="-13.60,101.60 -6.95,100.65 -2.36,97.90"/>
    </edge>
    <edge id=":J1_15" function="internal">
        <lane id=":J1_15_0" index="0" speed="10.36" length="12.44" shape="-2.36,97.90 -2.20,97.80 0.65,93.05 1.60,86.40"/>
    </edge>

    <edge id="-E0" from="J1" to="J0" priority="-1">
        <lane id="-E0_0" index="0" speed="13.89" length="286.40" shape="-13.60,92.00 -300.00,92.00"/>
        <lane id="-E0_1" index="1" speed="13.89" length="286.40" shape="-13.60,95.20 -300.00,95.20"/>
        <lane id="-E0_2" index="2" speed="13.89" length="286.40" shape="-13.60,98.40 -300.00,98.40"/>
    </edge>
    <edge id="-E1" from="J2" to="J1" priority="-1">
        <lane id="-E1_0" index="0" speed="13.89" length="286.40" shape="300.00,92.00 13.60,92.00"/>
        <lane id="-E1_1" index="1" speed="13.89" length="286.40" shape="300.00,95.20 13.60,95.20"/>
        <lane id="-E1_2" index="2" speed="13.89" length="286.40" shape="300.00,98.40 13.60,98.40"/>
    </edge>
    <edge id="-E3" from="J4" to="J1" priority="-1">
        <lane id="-E3_0" index="0" speed="13.89" length="286.40" shape="-8.00,-200.00 -8.00,86.40"/>
        <lane id="-E3_1" index="1" speed="13.89" length="286.40" shape="-4.80,-200.00 -4.80,86.40"/>
        <lane id="-E3_2" index="2" speed="13.89" length="286.40" shape="-1.60,-200.00 -1.60,86.40"/>
    </edge>
    <edge id="-E4" from="J1" to="J5" priority="-1">
        <lane id="-E4_0" index="0" speed="13.89" length="286.40" shape="-8.00,113.60 -8.00,400.00"/>
        <lane id="-E4_1" index="1" speed="13.89" length="286.40" shape="-4.80,113.60 -4.80,400.00"/>
        <lane id="-E4_2" index="2" speed="13.89" length="286.40" shape="-1.60,113.60 -1.60,400.00"/>
    </edge>
    <edge id="E0" from="J0" to="J1" priority="-1">
        <lane id="E0_0" index="0" speed="13.89" length="286.40" shape="-300.00,108.00 -13.60,108.00"/>
        <lane id="E0_1" index="1" speed="13.89" length="286.40" shape="-300.00,104.80 -13.60,104.80"/>
        <lane id="E0_2" index="2" speed="13.89" length="286.40" shape="-300.00,101.60 -13.60,101.60"/>
    </edge>
    <edge id="E1" from="J1" to="J2" priority="-1">
        <lane id="E1_0" index="0" speed="13.89" length="286.40" shape="13.60,108.00 300.00,108.00"/>
        <lane id="E1_1" index="1" speed="13.89" length="286.40" shape="13.60,104.80 300.00,104.80"/>
        <lane id="E1_2" index="2" speed="13.89" length="286.40" shape="13.60,101.60 300.00,101.60"/>
    </edge>
    <edge id="E3" from="J1" to="J4" priority="-1">
        <lane id="E3_0" index="0" speed="13.89" length="286.40" shape="8.00,86.40 8.00,-200.00"/>
        <lane id="E3_1" index="1" speed="13.89" length="286.40" shape="4.80,86.40 4.80,-200.00"/>
        <lane id="E3_2" index="2" speed="13.89" length="286.40" shape="1.60,86.40 1.60,-200.00"/>
    </edge>
    <edge id="E4" from="J5" to="J1" priority="-1">
        <lane id="E4_0" index="0" speed="13.89" length="286.40" shape="8.00,400.00 8.00,113.60"/>
        <lane id="E4_1" index="1" speed="13.89" length="286.40" shape="4.80,400.00 4.80,113.60"/>
        <lane id="E4_2" index="2" speed="13.89" length="286.40" shape="1.60,400.00 1.60,113.60"/>
    </edge>

    <tlLogic id="J1" type="static" programID="0" offset="0">
        <phase duration="33" state="GGgGrrGGgGrr"/>
        <phase duration="3"  state="yygyrryygyrr"/>
        <phase duration="6"  state="rrGrrrrrGrrr"/>
        <phase duration="3"  state="rryrrrrryrrr"/>
        <phase duration="33" state="GrrGGgGrrGGg"/>
        <phase duration="3"  state="yrryygyrryyg"/>
        <phase duration="6"  state="rrrrrGrrrrrG"/>
        <phase duration="3"  state="rrrrryrrrrry"/>
    </tlLogic>

    <junction id="J0" type="dead_end" x="-300.00" y="100.00" incLanes="-E0_0 -E0_1 -E0_2" intLanes="" shape="-300.00,100.00 -300.00,90.40 -300.00,100.00"/>
    <junction id="J1" type="traffic_light" x="0.00" y="100.00" incLanes="-E3_0 -E3_1 -E3_2 -E1_0 -E1_1 -E1_2 E4_0 E4_1 E4_2 E0_0 E0_1 E0_2" intLanes=":J1_0_0 :J1_1_0 :J1_12_0 :J1_3_0 :J1_4_0 :J1_13_0 :J1_6_0 :J1_7_0 :J1_14_0 :J1_9_0 :J1_10_0 :J1_15_0" shape="-9.60,86.40 9.60,86.40 10.04,88.62 10.60,89.40 11.38,89.96 12.38,90.29 13.60,90.40 13.60,109.60 11.38,110.04 10.60,110.60 10.04,111.38 9.71,112.38 9.60,113.60 -9.60,113.60 -10.04,111.38 -10.60,110.60 -11.38,110.04 -12.38,109.71 -13.60,109.60 -13.60,90.40 -11.38,89.96 -10.60,89.40 -10.04,88.62 -9.71,87.62">
        <request index="0"  response="000000000000" foes="000000000000" cont="0"/>
        <request index="1"  response="100000000000" foes="110100010000" cont="0"/>
        <request index="2"  response="100010100000" foes="100010110000" cont="1"/>
        <request index="3"  response="000000000000" foes="000000000000" cont="0"/>
        <request index="4"  response="000010000110" foes="100010000110" cont="0"/>
        <request index="5"  response="010110000100" foes="010110000100" cont="1"/>
        <request index="6"  response="000000000000" foes="000000000000" cont="0"/>
        <request index="7"  response="000000100000" foes="010000110100" cont="0"/>
        <request index="8"  response="100000100010" foes="110000100010" cont="1"/>
        <request index="9"  response="000000000000" foes="000000000000" cont="0"/>
        <request index="10" response="000110000010" foes="000110100010" cont="0"/>
        <request index="11" response="000100010110" foes="000100010110" cont="1"/>
    </junction>
    <junction id="J2" type="dead_end" x="300.00" y="100.00" incLanes="E1_0 E1_1 E1_2" intLanes="" shape="300.00,100.00 300.00,109.60 300.00,100.00"/>
    <junction id="J4" type="dead_end" x="0.00" y="-200.00" incLanes="E3_0 E3_1 E3_2" intLanes="" shape="0.00,-200.00 9.60,-200.00 0.00,-200.00"/>
    <junction id="J5" type="dead_end" x="0.00" y="400.00" incLanes="-E4_0 -E4_1 -E4_2" intLanes="" shape="0.00,400.00 -9.60,400.00 0.00,400.00"/>

    <junction id=":J1_12_0" type="internal" x="2.10" y="97.64" incLanes=":J1_2_0 E4_1" intLanes=":J1_4_0 :J1_5_0 :J1_7_0 :J1_11_0"/>
    <junction id=":J1_13_0" type="internal" x="2.36" y="102.10" incLanes=":J1_5_0 E0_1" intLanes=":J1_2_0 :J1_7_0 :J1_8_0 :J1_10_0"/>
    <junction id=":J1_14_0" type="internal" x="-2.10" y="102.36" incLanes=":J1_8_0 -E3_1" intLanes=":J1_1_0 :J1_5_0 :J1_10_0 :J1_11_0"/>
    <junction id=":J1_15_0" type="internal" x="-2.36" y="97.90" incLanes=":J1_11_0 -E1_1" intLanes=":J1_1_0 :J1_2_0 :J1_4_0 :J1_8_0"/>

    <connection from="-E1" to="E3" fromLane="0" toLane="0" via=":J1_3_0" tl="J1" linkIndex="3" dir="l" state="O"/>
    <connection from="-E1" to="-E0" fromLane="1" toLane="1" via=":J1_4_0" tl="J1" linkIndex="4" dir="s" state="o"/>
    <connection from="-E1" to="-E4" fromLane="2" toLane="2" via=":J1_5_0" tl="J1" linkIndex="5" dir="r" state="o"/>
    <connection from="-E3" to="-E0" fromLane="0" toLane="0" via=":J1_0_0" tl="J1" linkIndex="0" dir="l" state="O"/>
    <connection from="-E3" to="-E4" fromLane="1" toLane="1" via=":J1_1_0" tl="J1" linkIndex="1" dir="s" state="O"/>
    <connection from="-E3" to="E1" fromLane="2" toLane="2" via=":J1_2_0" tl="J1" linkIndex="2" dir="r" state="o"/>
    <connection from="E0" to="-E4" fromLane="0" toLane="0" via=":J1_9_0" tl="J1" linkIndex="9" dir="l" state="O"/>
    <connection from="E0" to="E1" fromLane="1" toLane="1" via=":J1_10_0" tl="J1" linkIndex="10" dir="s" state="o"/>
    <connection from="E0" to="E3" fromLane="2" toLane="2" via=":J1_11_0" tl="J1" linkIndex="11" dir="r" state="o"/>
    <connection from="E4" to="E1" fromLane="0" toLane="0" via=":J1_6_0" tl="J1" linkIndex="6" dir="l" state="O"/>
    <connection from="E4" to="E3" fromLane="1" toLane="1" via=":J1_7_0" tl="J1" linkIndex="7" dir="s" state="O"/>
    <connection from="E4" to="-E0" fromLane="2" toLane="2" via=":J1_8_0" tl="J1" linkIndex="8" dir="r" state="o"/>

    <connection from=":J1_0" to="-E0" fromLane="0" toLane="0" dir="l" state="M"/>
    <connection from=":J1_1" to="-E4" fromLane="0" toLane="1" dir="s" state="M"/>
    <connection from=":J1_2" to="E1" fromLane="0" toLane="2" via=":J1_12_0" dir="r" state="m"/>
    <connection from=":J1_12" to="E1" fromLane="0" toLane="2" dir="r" state="M"/>
    <connection from=":J1_3" to="E3" fromLane="0" toLane="0" dir="l" state="M"/>
    <connection from=":J1_4" to="-E0" fromLane="0" toLane="1" dir="s" state="M"/>
    <connection from=":J1_5" to="-E4" fromLane="0" toLane="2" via=":J1_13_0" dir="r" state="m"/>
    <connection from=":J1_13" to="-E4" fromLane="0" toLane="2" dir="r" state="M"/>
    <connection from=":J1_6" to="E1" fromLane="0" toLane="0" dir="l" state="M"/>
    <connection from=":J1_7" to="E3" fromLane="0" toLane="1" dir="s" state="M"/>
    <connection from=":J1_8" to="-E0" fromLane="0" toLane="2" via=":J1_14_0" dir="r" state="m"/>
    <connection from=":J1_14" to="-E0" fromLane="0" toLane="2" dir="r" state="M"/>
    <connection from=":J1_9" to="-E4" fromLane="0" toLane="0" dir="l" state="M"/>
    <connection from=":J1_10" to="E1" fromLane="0" toLane="1" dir="s" state="M"/>
    <connection from=":J1_11" to="E3" fromLane="0" toLane="2" via=":J1_15_0" dir="r" state="m"/>
    <connection from=":J1_15" to="E3" fromLane="0" toLane="2" dir="r" state="M"/>

</net>
